Version 4
SHEET 1 4792 1972
WIRE 704 -16 -256 -16
WIRE 976 -16 784 -16
WIRE 1152 -16 1040 -16
WIRE 1296 -16 1152 -16
WIRE 1456 -16 1296 -16
WIRE 704 16 704 -16
WIRE 784 16 784 -16
WIRE 1152 16 1152 -16
WIRE 1296 16 1296 -16
WIRE -256 32 -256 -16
WIRE 1456 80 1456 -16
WIRE 1152 112 1152 96
WIRE 1296 112 1296 96
WIRE 704 128 704 96
WIRE 784 128 784 96
WIRE -256 192 -256 112
WIRE 784 224 784 208
WIRE 1152 224 1152 176
WIRE 1152 224 784 224
WIRE 1296 224 1296 176
WIRE 1296 224 1152 224
WIRE 1456 224 1456 160
WIRE 1456 224 1296 224
WIRE 1456 256 1456 224
WIRE 976 336 784 336
WIRE 1152 336 1040 336
WIRE 1296 336 1152 336
WIRE 1456 336 1296 336
WIRE 784 352 784 336
WIRE 1152 368 1152 336
WIRE 1296 368 1296 336
WIRE 1456 432 1456 336
WIRE 784 464 784 432
WIRE 1152 464 1152 448
WIRE 1296 464 1296 448
WIRE 784 576 784 544
WIRE 1152 576 1152 528
WIRE 1152 576 784 576
WIRE 1296 576 1296 528
WIRE 1296 576 1152 576
WIRE 1456 576 1456 512
WIRE 1456 576 1296 576
WIRE 1456 608 1456 576
WIRE 704 1152 704 208
WIRE 256 1424 0 1424
WIRE 688 1424 688 1360
WIRE 688 1424 336 1424
WIRE 0 1456 0 1424
WIRE 720 1568 720 1360
WIRE 0 1600 0 1536
FLAG 1456 256 0
FLAG 720 1568 0
FLAG 1456 608 0
FLAG 1456 -16 Vo1
FLAG 1456 336 Vo2
FLAG -256 192 0
FLAG 0 1600 0
SYMBOL res 1440 64 R0
SYMATTR InstName RL1
SYMATTR Value {RL1}
SYMBOL ind2 720 112 R180
WINDOW 0 36 80 Left 2
WINDOW 3 36 40 Left 2
SYMATTR InstName Lp
SYMATTR Value {Lp}
SYMBOL ind2 768 0 R0
SYMATTR InstName L2
SYMATTR Value {L2}
SYMBOL cap 1136 112 R0
SYMATTR InstName C1
SYMATTR Value {Ce}
SYMBOL diode 976 0 R270
WINDOW 0 32 32 VTop 2
WINDOW 3 0 32 VBottom 2
SYMATTR InstName D1
SYMATTR Value MUR460
SYMBOL res 1440 416 R0
SYMATTR InstName RL2
SYMATTR Value {RL2}
SYMBOL ind2 768 336 R0
SYMATTR InstName L3
SYMATTR Value {L3}
SYMBOL cap 1136 464 R0
SYMATTR InstName C2
SYMATTR Value {Ce}
SYMBOL diode 976 352 R270
WINDOW 0 32 32 VTop 2
WINDOW 3 0 32 VBottom 2
SYMATTR InstName D6
SYMATTR Value MUR460
SYMBOL cap 1280 112 R0
SYMATTR InstName C4
SYMATTR Value {Cc}
SYMBOL cap 1280 464 R0
SYMATTR InstName C5
SYMATTR Value {Cc}
SYMBOL res 352 1408 R90
WINDOW 0 0 56 VBottom 2
WINDOW 3 32 56 VTop 2
SYMATTR InstName RG
SYMATTR Value {RG}
SYMBOL voltage -256 16 R0
WINDOW 123 0 0 Left 0
WINDOW 39 0 0 Left 0
SYMATTR InstName Vd
SYMATTR Value {Vd}
SYMBOL voltage 0 1440 R0
WINDOW 123 0 0 Left 0
WINDOW 39 0 0 Left 0
SYMATTR InstName V1
SYMATTR Value PULSE(0 {VGG} 0 1n 1n {Ton} {Ts} 1000000000)
SYMBOL AutoGenerated\\IPN80R1K2P7_L0 704 1248 M90
SYMATTR InstName U1
SYMBOL res 688 112 R0
WINDOW 0 -62 35 Left 2
WINDOW 3 -67 71 Left 2
SYMATTR InstName Rll1
SYMATTR Value {Rll}
SYMBOL res 768 112 R0
WINDOW 0 50 31 Left 2
WINDOW 3 49 70 Left 2
SYMATTR InstName R2
SYMATTR Value {Rll}
SYMBOL res 768 448 R0
WINDOW 0 49 42 Left 2
SYMATTR InstName R3
SYMATTR Value {Rll}
SYMBOL res 1136 0 R0
SYMATTR InstName R4
SYMATTR Value {ESR}
SYMBOL res 1280 0 R0
SYMATTR InstName R5
SYMATTR Value {ESR}
SYMBOL res 1136 352 R0
SYMATTR InstName R6
SYMATTR Value {ESR}
SYMBOL res 1280 352 R0
SYMATTR InstName R7
SYMATTR Value {ESR}
TEXT 96 1072 Left 2 !.tran 0 10.5m 10m 1u
TEXT 240 -224 Left 7 ;Flyback Grupo 1
TEXT 664 -64 Left 2 !K Lp L2 L3 1
TEXT 1376 472 Left 2 ;16V
TEXT 1384 120 Left 2 ;5V
TEXT 96 344 Left 5 ;Params
TEXT -160 464 Left 2 !.param Vd = 311
TEXT -160 504 Left 2 !.param VGG = 15
TEXT -160 544 Left 2 !.param fs = 150k
TEXT -160 584 Left 2 !.param Ts = 1/fs
TEXT -160 624 Left 2 !.param D = 0.2
TEXT -160 664 Left 2 !.param Ton = Ts * (1-D)
TEXT -160 832 Left 2 !.param RG = 22
TEXT -160 872 Left 2 !.param RL1 = 1.5
TEXT -160 912 Left 2 !.param RL2 = 1.25
TEXT 224 464 Left 2 !.param Lp = 2.53m
TEXT 224 504 Left 2 !.param L2 = 0.65u
TEXT 224 544 Left 2 !.param L3 = 6.7u
TEXT 232 832 Left 2 !.param Ce = 47u
TEXT 232 872 Left 2 !.param Cc = 1u
TEXT -160 408 Left 2 ;Fuentes
TEXT -160 776 Left 2 ;Resistencias
TEXT 216 408 Left 2 ;Inductores
TEXT 224 776 Left 2 ;Capacitores
TEXT -160 952 Left 2 !.param Rll = 0.2
TEXT -160 992 Left 2 !.param ESR = 0.0001
LINE Normal 736 576 736 -16
LINE Normal 752 576 752 -16
RECTANGLE Normal 576 1040 -176 304 2
RECTANGLE Normal 576 384 -176 304 2
RECTANGLE Normal -32 432 -176 384 2
RECTANGLE Normal 352 432 208 384 2
RECTANGLE Normal 208 752 -176 384 2
RECTANGLE Normal 208 1040 -176 752 2
RECTANGLE Normal 16 800 -176 752 2
RECTANGLE Normal 576 1040 208 752 2
RECTANGLE Normal 384 800 208 752 2
RECTANGLE Normal 576 1120 -176 1040 2
