Version 4
SHEET 1 4792 1972
WIRE 704 -16 336 -16
WIRE 976 -16 784 -16
WIRE 1152 -16 1040 -16
WIRE 1248 -16 1152 -16
WIRE 1456 -16 1248 -16
WIRE 336 32 336 -16
WIRE 704 48 704 -16
WIRE 784 48 784 -16
WIRE 1152 80 1152 -16
WIRE 1248 80 1248 -16
WIRE 1456 80 1456 -16
WIRE 336 192 336 112
WIRE 784 224 784 128
WIRE 1152 224 1152 144
WIRE 1152 224 784 224
WIRE 1248 224 1248 144
WIRE 1248 224 1152 224
WIRE 1456 224 1456 160
WIRE 1456 224 1248 224
WIRE 1456 256 1456 224
WIRE 976 336 784 336
WIRE 1152 336 1040 336
WIRE 1248 336 1152 336
WIRE 1456 336 1248 336
WIRE 784 400 784 336
WIRE 1152 432 1152 336
WIRE 1248 432 1248 336
WIRE 1456 432 1456 336
WIRE 784 576 784 480
WIRE 1152 576 1152 496
WIRE 1152 576 784 576
WIRE 1248 576 1248 496
WIRE 1248 576 1152 576
WIRE 1456 576 1456 512
WIRE 1456 576 1248 576
WIRE 1456 608 1456 576
WIRE 704 848 704 128
WIRE 240 928 -16 928
WIRE 656 928 320 928
WIRE -16 960 -16 928
WIRE -16 1104 -16 1040
WIRE 704 1296 704 944
FLAG 1456 256 0
FLAG 704 1296 0
FLAG 1456 608 0
FLAG 1456 -16 Vo1
FLAG 1456 336 Vo2
FLAG 336 192 0
FLAG -16 1104 0
SYMBOL res 1440 64 R0
SYMATTR InstName RL1
SYMATTR Value 5
SYMBOL ind2 720 144 R180
WINDOW 0 36 80 Left 2
WINDOW 3 36 40 Left 2
SYMATTR InstName Lp
SYMATTR Value 90m
SYMBOL ind2 768 32 R0
SYMATTR InstName Ls1
SYMATTR Value 6m
SYMBOL cap 1136 80 R0
SYMATTR InstName C1
SYMATTR Value 47µ
SYMBOL diode 976 0 R270
WINDOW 0 32 32 VTop 2
WINDOW 3 0 32 VBottom 2
SYMATTR InstName D1
SYMATTR Value MUR160
SYMBOL res 1440 416 R0
SYMATTR InstName RL2
SYMATTR Value 16k
SYMBOL ind2 768 384 R0
SYMATTR InstName Ls2
SYMATTR Value 19.2m
SYMBOL cap 1136 432 R0
SYMATTR InstName C2
SYMATTR Value 47µ
SYMBOL diode 976 352 R270
WINDOW 0 32 32 VTop 2
WINDOW 3 0 32 VBottom 2
SYMATTR InstName D6
SYMATTR Value MUR160
SYMBOL cap 1232 80 R0
SYMATTR InstName C4
SYMATTR Value 1µ
SYMBOL cap 1232 432 R0
SYMATTR InstName C5
SYMATTR Value 1µ
SYMBOL nmos 1392 720 R0
WINDOW 3 56 60 Left 2
SYMATTR Value IPN80R1K2P7_L1
SYMATTR InstName M1
SYMATTR Prefix X
SYMBOL nmos 656 848 R0
SYMATTR InstName M2
SYMATTR Value IRF530
SYMBOL res 336 912 R90
WINDOW 0 0 56 VBottom 2
WINDOW 3 32 56 VTop 2
SYMATTR InstName R1
SYMATTR Value 22
SYMBOL voltage 336 16 R0
WINDOW 123 0 0 Left 0
WINDOW 39 0 0 Left 0
SYMATTR InstName Vd
SYMATTR Value 300V
SYMBOL voltage -16 944 R0
WINDOW 123 0 0 Left 0
WINDOW 39 0 0 Left 0
SYMATTR InstName V1
SYMATTR Value PULSE(0 15 0 1n 1n 10.75u 18.18u)
TEXT 648 -232 Left 2 !.tran 0 1 10u 100u
TEXT 344 -304 Left 7 ;Flyback Grupo 1
TEXT 664 -64 Left 2 !K Lp Ls1 Ls2 1
TEXT 1376 472 Left 2 ;16V
TEXT 1384 120 Left 2 ;5V
TEXT 1448 800 Left 2 !.inc MOS_Model.lib
LINE Normal 736 576 736 -16
LINE Normal 752 576 752 -16
