Version 4
SHEET 1 5892 2080
WIRE -464 -1568 -736 -1568
WIRE -416 -1568 -464 -1568
WIRE -304 -1568 -352 -1568
WIRE -176 -1568 -304 -1568
WIRE 448 -1568 80 -1568
WIRE 720 -1568 528 -1568
WIRE 896 -1568 784 -1568
WIRE 992 -1568 896 -1568
WIRE 1200 -1568 992 -1568
WIRE -464 -1536 -464 -1568
WIRE -304 -1536 -304 -1568
WIRE 80 -1520 80 -1568
WIRE 448 -1504 448 -1568
WIRE 528 -1504 528 -1568
WIRE -736 -1488 -736 -1568
WIRE -176 -1488 -176 -1568
WIRE 896 -1472 896 -1568
WIRE 992 -1472 992 -1568
WIRE 1200 -1472 1200 -1568
WIRE -464 -1424 -464 -1472
WIRE -416 -1424 -464 -1424
WIRE -304 -1424 -304 -1472
WIRE -304 -1424 -352 -1424
WIRE -736 -1360 -736 -1408
WIRE -304 -1360 -304 -1424
WIRE -304 -1360 -736 -1360
WIRE 80 -1360 80 -1440
WIRE 528 -1328 528 -1424
WIRE 896 -1328 896 -1408
WIRE 896 -1328 528 -1328
WIRE 992 -1328 992 -1408
WIRE 992 -1328 896 -1328
WIRE 1200 -1328 1200 -1392
WIRE 1200 -1328 992 -1328
WIRE 1200 -1296 1200 -1328
WIRE -464 -1264 -464 -1424
WIRE -176 -1264 -176 -1424
WIRE 720 -1216 528 -1216
WIRE 896 -1216 784 -1216
WIRE 992 -1216 896 -1216
WIRE 1200 -1216 992 -1216
WIRE 528 -1152 528 -1216
WIRE 896 -1120 896 -1216
WIRE 992 -1120 992 -1216
WIRE 1200 -1120 1200 -1216
WIRE 528 -976 528 -1072
WIRE 896 -976 896 -1056
WIRE 896 -976 528 -976
WIRE 992 -976 992 -1056
WIRE 992 -976 896 -976
WIRE 1200 -976 1200 -1040
WIRE 1200 -976 992 -976
WIRE 1200 -944 1200 -976
WIRE 448 -832 448 -1424
WIRE 608 -832 448 -832
WIRE 656 -832 608 -832
WIRE 752 -832 720 -832
WIRE 864 -832 752 -832
WIRE 864 -800 864 -832
WIRE 448 -752 448 -832
WIRE 608 -704 608 -832
WIRE 640 -704 608 -704
WIRE 752 -704 752 -832
WIRE 752 -704 720 -704
WIRE 864 -672 864 -736
WIRE 0 -512 -256 -512
WIRE 432 -512 432 -544
WIRE 432 -512 80 -512
WIRE 464 -256 464 -544
WIRE 800 80 768 80
WIRE 896 80 864 80
WIRE 1008 80 976 80
WIRE 176 144 0 144
WIRE 352 144 256 144
WIRE 448 144 352 144
WIRE 624 144 624 -32
WIRE 624 144 528 144
WIRE 768 144 768 80
WIRE 768 144 624 144
WIRE 1008 144 1008 80
WIRE 1120 144 1008 144
WIRE 768 192 768 144
WIRE 864 192 768 192
WIRE 1008 192 1008 144
WIRE 1008 192 928 192
WIRE 352 208 352 144
WIRE 352 384 352 288
WIRE 80 832 0 832
WIRE 1360 832 496 832
WIRE 80 896 0 896
WIRE 928 896 496 896
WIRE 80 960 0 960
WIRE 576 960 496 960
WIRE 80 1024 0 1024
WIRE 928 1024 928 896
WIRE 928 1024 496 1024
WIRE 1360 1056 1360 832
WIRE -16 1088 -256 1088
WIRE 80 1088 -16 1088
WIRE 832 1088 496 1088
WIRE 80 1152 -160 1152
WIRE 576 1152 496 1152
WIRE -16 1216 -16 1088
WIRE 80 1216 -16 1216
WIRE 832 1216 832 1088
WIRE 832 1216 496 1216
WIRE 928 1248 928 1024
WIRE 1072 1248 928 1248
WIRE 1360 1248 1360 1136
WIRE 1360 1248 1280 1248
WIRE 80 1280 -16 1280
WIRE 576 1280 496 1280
WIRE -160 1312 -160 1152
WIRE 928 1312 928 1248
WIRE -256 1328 -256 1088
WIRE -16 1328 -16 1280
WIRE 1072 1328 1072 1248
WIRE 1360 1360 1360 1248
WIRE -256 1456 -256 1392
WIRE -160 1456 -160 1392
WIRE -16 1456 -16 1392
WIRE 832 1472 832 1216
WIRE 928 1472 928 1392
WIRE 1072 1472 1072 1392
WIRE 1360 1472 1360 1440
FLAG 576 960 Vcontrol
FLAG 576 1280 Vcomp
FLAG 0 832 Vfb
FLAG 1200 -1296 0
FLAG 464 -256 0
FLAG 1200 -944 0
FLAG 1200 -1568 Vo1
FLAG 1200 -1216 Vo2
FLAG 864 -672 0
FLAG -464 -1264 0
FLAG -176 -1264 0
FLAG -256 -512 Vcontrol
FLAG 80 -1360 0
FLAG 0 144 Vo2
FLAG 352 384 0
FLAG 624 -32 Vfb
FLAG 1120 144 Vcomp
FLAG 928 1472 0
FLAG 1072 1472 0
FLAG 832 1472 0
FLAG -160 1456 0
FLAG -256 1456 0
FLAG -16 1456 0
FLAG 1360 1472 0
FLAG 1280 1248 Vref_c
FLAG 0 896 Vref_c
SYMBOL SG3525A 224 928 R0
SYMATTR InstName U2
SYMATTR Value SG3525A
SYMBOL voltage -736 -1504 R0
WINDOW 0 25 17 Left 2
WINDOW 3 -234 100 Left 2
WINDOW 123 0 0 Left 0
WINDOW 39 24 124 Left 2
SYMATTR InstName Vwall
SYMATTR Value SINE(0 220 50)
SYMBOL res 1184 -1488 R0
SYMATTR InstName RL1
SYMATTR Value {RL1}
SYMBOL ind2 464 -1408 R180
WINDOW 0 36 80 Left 2
WINDOW 3 36 40 Left 2
SYMATTR InstName Lp
SYMATTR Value {Lp}
SYMBOL ind2 512 -1520 R0
SYMATTR InstName L2
SYMATTR Value {L2}
SYMBOL cap 880 -1472 R0
SYMATTR InstName C1
SYMATTR Value {Ce}
SYMBOL diode 720 -1552 R270
WINDOW 0 32 32 VTop 2
WINDOW 3 0 32 VBottom 2
SYMATTR InstName D1
SYMATTR Value MUR460
SYMBOL cap -192 -1488 R0
SYMATTR InstName Cin
SYMATTR Value 200µ
SYMBOL res 1184 -1136 R0
SYMATTR InstName RL2
SYMATTR Value {RL2}
SYMBOL ind2 512 -1168 R0
SYMATTR InstName L3
SYMATTR Value {L3}
SYMBOL cap 880 -1120 R0
SYMATTR InstName C3
SYMATTR Value {Ce}
SYMBOL diode 720 -1200 R270
WINDOW 0 32 32 VTop 2
WINDOW 3 0 32 VBottom 2
SYMATTR InstName D8
SYMATTR Value MUR460
SYMBOL res 736 -720 R90
WINDOW 0 -8 53 VBottom 2
WINDOW 3 32 56 VTop 2
SYMATTR InstName Rsn1
SYMATTR Value {Rsn}
SYMBOL cap 848 -800 R0
SYMATTR InstName Csn1
SYMATTR Value {Csn}
SYMBOL cap 976 -1472 R0
SYMATTR InstName C2
SYMATTR Value {Cc}
SYMBOL cap 976 -1120 R0
SYMATTR InstName C4
SYMATTR Value {Cc}
SYMBOL res 96 -528 R90
WINDOW 0 0 56 VBottom 2
WINDOW 3 32 56 VTop 2
SYMATTR InstName RG
SYMATTR Value 22
SYMBOL voltage 80 -1536 R0
WINDOW 123 0 0 Left 0
WINDOW 39 0 0 Left 0
SYMATTR InstName Vd
SYMATTR Value {Vd}
SYMBOL AutoGenerated\\IPN80R1K2P7_L0 448 -656 M90
SYMATTR InstName U1
SYMBOL schottky 656 -816 R270
WINDOW 0 32 32 VTop 2
WINDOW 3 0 32 VBottom 2
SYMATTR InstName D9
SYMATTR Value 1N5819
SYMBOL diode -448 -1472 R180
WINDOW 0 24 64 Left 2
WINDOW 3 24 0 Left 2
SYMATTR InstName D10
SYMBOL diode -416 -1552 R270
WINDOW 0 32 32 VTop 2
WINDOW 3 0 32 VBottom 2
SYMATTR InstName D11
SYMBOL diode -288 -1472 R180
WINDOW 0 24 64 Left 2
WINDOW 3 24 0 Left 2
SYMATTR InstName D12
SYMBOL diode -416 -1408 R270
WINDOW 0 32 32 VTop 2
WINDOW 3 0 32 VBottom 2
SYMATTR InstName D13
SYMBOL res 272 128 R90
WINDOW 0 0 56 VBottom 2
WINDOW 3 32 56 VTop 2
SYMATTR InstName Rfb1
SYMATTR Value {Rfb1}
SYMBOL res 368 304 R180
WINDOW 0 36 76 Left 2
WINDOW 3 36 40 Left 2
SYMATTR InstName Rfb2
SYMATTR Value {Rfb2}
SYMBOL res 992 64 R90
WINDOW 0 0 56 VBottom 2
WINDOW 3 32 56 VTop 2
SYMATTR InstName Rpi
SYMATTR Value {Rpi}
SYMBOL cap 928 176 R90
WINDOW 0 0 32 VBottom 2
WINDOW 3 32 32 VTop 2
SYMATTR InstName Cpi2
SYMATTR Value {Cpi2}
SYMBOL cap 864 64 R90
WINDOW 0 0 32 VBottom 2
WINDOW 3 32 32 VTop 2
SYMATTR InstName Cpi1
SYMATTR Value {Cpi1}
SYMBOL res 544 128 R90
WINDOW 0 0 56 VBottom 2
WINDOW 3 32 56 VTop 2
SYMATTR InstName Rfb3
SYMATTR Value {Rfb3}
SYMBOL voltage 928 1296 R0
WINDOW 123 0 0 Left 0
WINDOW 39 0 0 Left 0
SYMATTR InstName VGG
SYMATTR Value {VGG}
SYMBOL cap 1056 1328 R0
SYMATTR InstName CGG
SYMATTR Value {CGG}
SYMBOL res -176 1296 R0
SYMATTR InstName Rt
SYMATTR Value {Rt}
SYMBOL cap -272 1328 R0
SYMATTR InstName Ct
SYMATTR Value {Ct}
SYMBOL cap -32 1328 R0
SYMATTR InstName Csoft
SYMATTR Value {Csoft}
SYMBOL res 1376 1152 R180
WINDOW 0 36 76 Left 2
WINDOW 3 36 40 Left 2
SYMATTR InstName Rref1
SYMATTR Value {Rref1}
SYMBOL res 1376 1456 R180
WINDOW 0 36 76 Left 2
WINDOW 3 36 40 Left 2
SYMATTR InstName Rref2
SYMATTR Value {Rref2}
TEXT 88 -1856 Left 7 ;Flyback Grupo 1
TEXT 408 -1616 Left 2 !K Lp L2 L3 1
TEXT 832 -904 Left 2 ;SNUBBER
TEXT 1120 -1080 Left 2 ;16V
TEXT 1128 -1432 Left 2 ;5V
TEXT -392 -1640 Left 2 ;RECTIFICADOR
TEXT 1776 -744 Left 2 !.tran 0 10m 0 1u
TEXT 1648 -1544 Left 5 ;Params
TEXT 1392 -1424 Left 2 !.param Vd = 311
TEXT 1392 -1384 Left 2 !.param VGG = 15
TEXT 1392 -1344 Left 2 !.param fs = 150k
TEXT 1392 -1304 Left 2 !.param Ts = 1/fs
TEXT 1392 -1264 Left 2 !.param D = 0.2
TEXT 1392 -1224 Left 2 !.param Ton = Ts * (1-D)
TEXT 1392 -1056 Left 2 !.param RG = 22
TEXT 1392 -1016 Left 2 !.param RL1 = 1.5
TEXT 1392 -976 Left 2 !.param RL2 = 1.25
TEXT 1776 -1424 Left 2 !.param Lp = 2.53m
TEXT 1776 -1384 Left 2 !.param L2 = 1.1u
TEXT 1776 -1344 Left 2 !.param L3 = 9u
TEXT 1784 -1056 Left 2 !.param Ce = 47u
TEXT 1784 -1016 Left 2 !.param Cc = 1u
TEXT 1392 -1480 Left 2 ;Fuentes
TEXT 1392 -1112 Left 2 ;Resistencias
TEXT 1768 -1480 Left 2 ;Inductores
TEXT 1776 -1112 Left 2 ;Capacitores
TEXT 1392 -776 Left 2 !.param Rsn = 200
TEXT 1392 -736 Left 2 !.param Csn = 690p
TEXT 1392 -840 Left 2 ;Snubber
TEXT 1776 -600 Left 2 ;Realimentacion
TEXT 1392 -600 Left 2 ;SG3525
TEXT 1776 -840 Left 2 ;Run
TEXT 1776 -784 Left 2 !.inc SG3525A.sub
TEXT 1392 -544 Left 2 !.param Rt = 3k
TEXT 1392 -496 Left 2 !.param Ct = 1n
TEXT 1392 -448 Left 2 !.param Csoft = 1u
TEXT 1392 -400 Left 2 !.param CGG = 100n
TEXT 1392 -352 Left 2 !.param Rref1 = 12k
TEXT 1392 -304 Left 2 !.param Rref2 = 10k
TEXT 112 -48 Left 2 ;Realimentacion
TEXT -368 1504 Left 2 ;Oscilador
TEXT -352 696 Left 2 ;SG3525
TEXT 1784 -544 Left 2 !.param Rfb1 = 33k
TEXT 1784 -496 Left 2 !.param Rfb2 = 5.6k
TEXT 1784 -448 Left 2 !.param Rfb3 = 560
TEXT 1784 -400 Left 2 !.param Rpi = 20k
TEXT 1784 -352 Left 2 !.param Cpi1 = 50n
TEXT 1784 -304 Left 2 !.param Cpi2 = 100p
LINE Normal 480 -976 480 -1568
LINE Normal 496 -976 496 -1568
RECTANGLE Normal -208 -1328 -544 -1664 3
RECTANGLE Normal 960 -608 576 -928 3
RECTANGLE Normal 2128 -624 1376 -1584 2
RECTANGLE Normal 2128 -1504 1376 -1584 2
RECTANGLE Normal 1520 -1456 1376 -1504 2
RECTANGLE Normal 1904 -1456 1760 -1504 2
RECTANGLE Normal 1760 -1136 1376 -1504 2
RECTANGLE Normal 1760 -624 1376 -1136 2
RECTANGLE Normal 1568 -1088 1376 -1136 2
RECTANGLE Normal 2128 -624 1760 -1136 2
RECTANGLE Normal 1936 -1088 1760 -1136 2
RECTANGLE Normal 1760 -256 1376 -624 2
RECTANGLE Normal 1520 -816 1376 -864 2
RECTANGLE Normal 2128 -624 1376 -864 2
RECTANGLE Normal 1840 -816 1760 -864 2
RECTANGLE Normal 1504 -576 1376 -624 2
RECTANGLE Normal 2128 -256 1760 -624 2
RECTANGLE Normal 1984 -576 1760 -624 2
RECTANGLE Normal 1072 416 96 -80 2
RECTANGLE Normal -64 1536 -384 1264 2
RECTANGLE Normal 1424 1536 -384 656 2
