Version 4
SHEET 1 4792 3780
WIRE -208 -16 -480 -16
WIRE -160 -16 -208 -16
WIRE -48 -16 -96 -16
WIRE 80 -16 -48 -16
WIRE 704 -16 336 -16
WIRE 976 -16 784 -16
WIRE 1152 -16 1040 -16
WIRE 1248 -16 1152 -16
WIRE 1456 -16 1248 -16
WIRE -208 16 -208 -16
WIRE -48 16 -48 -16
WIRE 336 32 336 -16
WIRE 704 48 704 -16
WIRE 784 48 784 -16
WIRE -480 64 -480 -16
WIRE 80 64 80 -16
WIRE 1152 80 1152 -16
WIRE 1248 80 1248 -16
WIRE 1456 80 1456 -16
WIRE -208 128 -208 80
WIRE -160 128 -208 128
WIRE -48 128 -48 80
WIRE -48 128 -96 128
WIRE -480 192 -480 144
WIRE -48 192 -48 128
WIRE -48 192 -480 192
WIRE 336 192 336 112
WIRE 784 224 784 128
WIRE 1152 224 1152 144
WIRE 1152 224 784 224
WIRE 1248 224 1248 144
WIRE 1248 224 1152 224
WIRE 1456 224 1456 160
WIRE 1456 224 1248 224
WIRE 1456 256 1456 224
WIRE -208 288 -208 128
WIRE 80 288 80 128
WIRE 976 336 784 336
WIRE 1152 336 1040 336
WIRE 1248 336 1152 336
WIRE 1456 336 1248 336
WIRE 784 400 784 336
WIRE 1152 432 1152 336
WIRE 1248 432 1248 336
WIRE 1456 432 1456 336
WIRE 784 576 784 480
WIRE 1152 576 1152 496
WIRE 1152 576 784 576
WIRE 1248 576 1248 496
WIRE 1248 576 1152 576
WIRE 1456 576 1456 512
WIRE 1456 576 1248 576
WIRE 1456 608 1456 576
WIRE 704 720 704 128
WIRE 864 720 704 720
WIRE 912 720 864 720
WIRE 1008 720 976 720
WIRE 1120 720 1008 720
WIRE 1120 752 1120 720
WIRE 704 800 704 720
WIRE 864 848 864 720
WIRE 896 848 864 848
WIRE 1008 848 1008 720
WIRE 1008 848 976 848
WIRE 1120 880 1120 816
WIRE 256 1040 0 1040
WIRE 688 1040 688 1008
WIRE 688 1040 336 1040
WIRE 720 1296 720 1008
WIRE 880 1664 848 1664
WIRE 976 1664 944 1664
WIRE 1088 1664 1056 1664
WIRE 256 1728 -16 1728
WIRE 432 1728 336 1728
WIRE 528 1728 432 1728
WIRE 704 1728 704 1552
WIRE 704 1728 608 1728
WIRE 848 1728 848 1664
WIRE 848 1728 704 1728
WIRE 1088 1728 1088 1664
WIRE 1200 1728 1088 1728
WIRE 848 1776 848 1728
WIRE 944 1776 848 1776
WIRE 1088 1776 1088 1728
WIRE 1088 1776 1008 1776
WIRE 432 1792 432 1728
WIRE 432 1968 432 1872
WIRE 336 2320 272 2320
WIRE 1392 2320 752 2320
WIRE 336 2384 272 2384
WIRE 1024 2384 752 2384
WIRE 336 2448 272 2448
WIRE 816 2448 752 2448
WIRE 336 2512 272 2512
WIRE 1024 2512 1024 2384
WIRE 1024 2512 752 2512
WIRE 1392 2544 1392 2320
WIRE 240 2576 0 2576
WIRE 336 2576 240 2576
WIRE 928 2576 752 2576
WIRE 336 2640 96 2640
WIRE 816 2640 752 2640
WIRE 240 2704 240 2576
WIRE 336 2704 240 2704
WIRE 928 2704 928 2576
WIRE 928 2704 752 2704
WIRE 1024 2736 1024 2512
WIRE 1168 2736 1024 2736
WIRE 1392 2736 1392 2624
WIRE 1392 2736 1312 2736
WIRE 336 2768 240 2768
WIRE 816 2768 752 2768
WIRE 96 2800 96 2640
WIRE 1024 2800 1024 2736
WIRE 0 2816 0 2576
WIRE 240 2816 240 2768
WIRE 1168 2816 1168 2736
WIRE 1392 2848 1392 2736
WIRE 0 2944 0 2880
WIRE 96 2944 96 2880
WIRE 240 2944 240 2880
WIRE 928 2960 928 2704
WIRE 1024 2960 1024 2880
WIRE 1168 2960 1168 2880
WIRE 1392 2960 1392 2928
FLAG 1456 256 0
FLAG 720 1296 0
FLAG 1456 608 0
FLAG 1456 -16 Vo1
FLAG 1456 336 Vo2
FLAG 1120 880 0
FLAG -208 288 0
FLAG 80 288 0
FLAG -16 1728 Vo2
FLAG 432 1968 0
FLAG 0 1040 Vcontrol
FLAG 704 1552 Vfb
FLAG 1200 1728 Vcomp
FLAG 336 192 0
FLAG 272 2320 Vfb
FLAG 928 2960 0
FLAG 96 2944 0
FLAG 0 2944 0
FLAG 240 2944 0
FLAG 816 2768 Vcomp
FLAG 1024 2960 0
FLAG 816 2448 Vcontrol
FLAG 1392 2960 0
FLAG 1312 2736 Vref_c
FLAG 272 2384 Vref_c
FLAG 1168 2960 0
SYMBOL voltage -480 48 R0
WINDOW 0 25 17 Left 2
WINDOW 3 -234 100 Left 2
WINDOW 123 0 0 Left 0
WINDOW 39 24 124 Left 2
SYMATTR InstName Vwall
SYMATTR Value SINE(0 220 50)
SYMBOL res 1440 64 R0
SYMATTR InstName RL1
SYMATTR Value {RL1}
SYMBOL ind2 720 144 R180
WINDOW 0 36 80 Left 2
WINDOW 3 36 40 Left 2
SYMATTR InstName Lp
SYMATTR Value {Lp}
SYMBOL ind2 768 32 R0
SYMATTR InstName L2
SYMATTR Value {L2}
SYMBOL cap 1136 80 R0
SYMATTR InstName C1
SYMATTR Value {Ce}
SYMBOL diode 976 0 R270
WINDOW 0 32 32 VTop 2
WINDOW 3 0 32 VBottom 2
SYMATTR InstName D1
SYMATTR Value MUR460
SYMBOL cap 64 64 R0
SYMATTR InstName Cin
SYMATTR Value 200µ
SYMBOL res 1440 416 R0
SYMATTR InstName RL2
SYMATTR Value {RL2}
SYMBOL ind2 768 384 R0
SYMATTR InstName L3
SYMATTR Value {L3}
SYMBOL cap 1136 432 R0
SYMATTR InstName C2
SYMATTR Value {Ce}
SYMBOL diode 976 352 R270
WINDOW 0 32 32 VTop 2
WINDOW 3 0 32 VBottom 2
SYMATTR InstName D6
SYMATTR Value MUR460
SYMBOL res 992 832 R90
WINDOW 0 -8 53 VBottom 2
WINDOW 3 32 56 VTop 2
SYMATTR InstName Rsn
SYMATTR Value {Rsn}
SYMBOL cap 1104 752 R0
SYMATTR InstName Csn
SYMATTR Value {Csn}
SYMBOL cap 1232 80 R0
SYMATTR InstName C4
SYMATTR Value {Cc}
SYMBOL cap 1232 432 R0
SYMATTR InstName C5
SYMATTR Value {Cc}
SYMBOL res 352 1024 R90
WINDOW 0 0 56 VBottom 2
WINDOW 3 32 56 VTop 2
SYMATTR InstName R1
SYMATTR Value 22
SYMBOL res 352 1712 R90
WINDOW 0 0 56 VBottom 2
WINDOW 3 32 56 VTop 2
SYMATTR InstName R2
SYMATTR Value 33k
SYMBOL res 448 1888 R180
WINDOW 0 36 76 Left 2
WINDOW 3 36 40 Left 2
SYMATTR InstName R4
SYMATTR Value 5.6k
SYMBOL res 1072 1648 R90
WINDOW 0 0 56 VBottom 2
WINDOW 3 32 56 VTop 2
SYMATTR InstName R5
SYMATTR Value 20k
SYMBOL cap 1008 1760 R90
WINDOW 0 0 32 VBottom 2
WINDOW 3 32 32 VTop 2
SYMATTR InstName C3
SYMATTR Value 100p
SYMBOL voltage 336 16 R0
WINDOW 123 0 0 Left 0
WINDOW 39 0 0 Left 0
SYMATTR InstName Vd
SYMATTR Value {Vd}
SYMBOL res 80 2784 R0
SYMATTR InstName Rt
SYMATTR Value {Rt}
SYMBOL cap -16 2816 R0
SYMATTR InstName Ct
SYMATTR Value {Ct}
SYMBOL cap 224 2816 R0
SYMATTR InstName Csoft
SYMATTR Value {Csoft}
SYMBOL voltage 1024 2784 R0
WINDOW 123 0 0 Left 0
WINDOW 39 0 0 Left 0
SYMATTR InstName VGG
SYMATTR Value {VGG}
SYMBOL cap 944 1648 R90
WINDOW 0 0 32 VBottom 2
WINDOW 3 32 32 VTop 2
SYMATTR InstName C8
SYMATTR Value 50n
SYMBOL res 1408 2640 R180
WINDOW 0 36 76 Left 2
WINDOW 3 36 40 Left 2
SYMATTR InstName R7
SYMATTR Value {Rref1}
SYMBOL res 1408 2944 R180
WINDOW 0 36 76 Left 2
WINDOW 3 36 40 Left 2
SYMATTR InstName R44
SYMATTR Value {Rref2}
SYMBOL cap 1152 2816 R0
SYMATTR InstName C9
SYMATTR Value {CGG}
SYMBOL SG3525A 480 2416 R0
SYMATTR InstName U2
SYMBOL AutoGenerated\\IPN80R1K2P7_L0 704 896 M90
SYMATTR InstName U1
SYMBOL res 624 1712 R90
WINDOW 0 0 56 VBottom 2
WINDOW 3 32 56 VTop 2
SYMATTR InstName R6
SYMATTR Value 560
SYMBOL schottky 912 736 R270
WINDOW 0 32 32 VTop 2
WINDOW 3 0 32 VBottom 2
SYMATTR InstName D9
SYMATTR Value 1N5819
SYMBOL diode -192 80 R180
WINDOW 0 24 64 Left 2
WINDOW 3 24 0 Left 2
SYMATTR InstName D2
SYMBOL diode -160 0 R270
WINDOW 0 32 32 VTop 2
WINDOW 3 0 32 VBottom 2
SYMATTR InstName D3
SYMBOL diode -32 80 R180
WINDOW 0 24 64 Left 2
WINDOW 3 24 0 Left 2
SYMATTR InstName D4
SYMBOL diode -160 144 R270
WINDOW 0 32 32 VTop 2
WINDOW 3 0 32 VBottom 2
SYMATTR InstName D5
TEXT 344 -304 Left 7 ;Flyback Grupo 1
TEXT 664 -64 Left 2 !K Lp Ls1 Ls2 1
TEXT 1088 648 Left 2 ;SNUBBER
TEXT 1376 472 Left 2 ;16V
TEXT 1384 120 Left 2 ;5V
TEXT -136 -88 Left 2 ;RECTIFICADOR
TEXT 192 1536 Left 2 ;PI
TEXT 2032 808 Left 2 !.tran 0 30m 0 1u
TEXT 1904 8 Left 5 ;Params
TEXT 1648 128 Left 2 !.param Vd = 311
TEXT 1648 168 Left 2 !.param VGG = 15
TEXT 1648 208 Left 2 !.param fs = 150k
TEXT 1648 248 Left 2 !.param Ts = 1/fs
TEXT 1648 288 Left 2 !.param D = 0.2
TEXT 1648 328 Left 2 !.param Ton = Ts * (1-D)
TEXT 1648 496 Left 2 !.param RG = 22
TEXT 1648 536 Left 2 !.param RL1 = 5
TEXT 1648 576 Left 2 !.param RL2 = 16K
TEXT 2032 128 Left 2 !.param Lp = 2.53m
TEXT 2032 168 Left 2 !.param L2 = 40.7u
TEXT 2032 208 Left 2 !.param L3 = 130u
TEXT 2040 496 Left 2 !.param Ce = 47u
TEXT 2040 536 Left 2 !.param Cc = 1u
TEXT 1648 72 Left 2 ;Fuentes
TEXT 1648 440 Left 2 ;Resistencias
TEXT 2024 72 Left 2 ;Inductores
TEXT 2032 440 Left 2 ;Capacitores
TEXT 1648 776 Left 2 !.param Rsn = 220
TEXT 1648 816 Left 2 !.param Csn = 690p
TEXT 1648 712 Left 2 ;Snubber
TEXT 2032 952 Left 2 ;Realimentacion
TEXT -104 2184 Left 2 ;SG3525
TEXT 1648 952 Left 2 ;SG3525
TEXT 2032 712 Left 2 ;Run
TEXT 2032 768 Left 2 !.inc SG3525A.sub
TEXT 1648 1008 Left 2 !.param Rt = 2.7k
TEXT 1648 1056 Left 2 !.param Ct = 3.3n
TEXT 1648 1104 Left 2 !.param Csoft = 5u
TEXT -112 2992 Left 2 ;Oscilador
TEXT 1648 1152 Left 2 !.param CGG = 100n
TEXT 1648 1200 Left 2 !.param Rref1 = 12k
TEXT 1648 1248 Left 2 !.param Rref2 = 10k
LINE Normal 736 576 736 -16
LINE Normal 752 576 752 -16
RECTANGLE Normal 48 224 -288 -112 3
RECTANGLE Normal 1216 944 832 624 3
RECTANGLE Normal 1152 2000 176 1504 2
RECTANGLE Normal 2384 928 1632 -32 2
RECTANGLE Normal 2384 48 1632 -32 2
RECTANGLE Normal 1776 96 1632 48 2
RECTANGLE Normal 2160 96 2016 48 2
RECTANGLE Normal 2016 416 1632 48 2
RECTANGLE Normal 2016 928 1632 416 2
RECTANGLE Normal 1824 464 1632 416 2
RECTANGLE Normal 2384 928 2016 416 2
RECTANGLE Normal 2192 464 2016 416 2
RECTANGLE Normal 2016 1296 1632 928 2
RECTANGLE Normal 1776 736 1632 688 2
RECTANGLE Normal 2384 928 1632 688 2
RECTANGLE Normal 2096 736 2016 688 2
RECTANGLE Normal 1456 3024 -128 2144 2
RECTANGLE Normal 1760 976 1632 928 2
RECTANGLE Normal 2384 1296 2016 928 2
RECTANGLE Normal 2240 976 2016 928 2
RECTANGLE Normal 192 3024 -128 2752 2
