Version 4
SHEET 1 4792 1440
WIRE 32 -16 -240 -16
WIRE 80 -16 32 -16
WIRE 192 -16 144 -16
WIRE 320 -16 192 -16
WIRE 464 -16 320 -16
WIRE 704 -16 464 -16
WIRE 976 -16 784 -16
WIRE 1152 -16 1040 -16
WIRE 1248 -16 1152 -16
WIRE 1456 -16 1248 -16
WIRE 32 16 32 -16
WIRE 192 16 192 -16
WIRE 704 48 704 -16
WIRE 784 48 784 -16
WIRE -240 64 -240 -16
WIRE 320 64 320 -16
WIRE 1152 80 1152 -16
WIRE 1248 80 1248 -16
WIRE 1456 80 1456 -16
WIRE 32 128 32 80
WIRE 80 128 32 128
WIRE 192 128 192 80
WIRE 192 128 144 128
WIRE -240 192 -240 144
WIRE 192 192 192 128
WIRE 192 192 -240 192
WIRE 320 192 320 128
WIRE 320 192 192 192
WIRE 784 224 784 128
WIRE 1152 224 1152 144
WIRE 1152 224 784 224
WIRE 1248 224 1248 144
WIRE 1248 224 1152 224
WIRE 1456 224 1456 160
WIRE 1456 224 1248 224
WIRE 1456 256 1456 224
WIRE 976 336 784 336
WIRE 1152 336 1040 336
WIRE 1248 336 1152 336
WIRE 1456 336 1248 336
WIRE -240 368 -240 192
WIRE 784 400 784 336
WIRE 1152 432 1152 336
WIRE 1248 432 1248 336
WIRE 1456 432 1456 336
WIRE 784 576 784 480
WIRE 1152 576 1152 496
WIRE 1152 576 784 576
WIRE 1248 576 1248 496
WIRE 1248 576 1152 576
WIRE 1456 576 1456 512
WIRE 1456 576 1248 576
WIRE 1456 608 1456 576
WIRE 704 720 704 128
WIRE 864 720 704 720
WIRE 912 720 864 720
WIRE 1008 720 976 720
WIRE 1120 720 1008 720
WIRE 1120 752 1120 720
WIRE 864 848 864 720
WIRE 896 848 864 848
WIRE 1008 848 1008 720
WIRE 1008 848 976 848
WIRE 1120 864 1120 816
WIRE 704 880 704 720
WIRE 624 928 384 928
WIRE 384 960 384 928
WIRE 704 1040 704 976
WIRE 384 1072 384 1040
FLAG -240 368 0
FLAG 1456 256 0
FLAG 704 1040 0
FLAG 384 1072 0
FLAG 1456 608 0
FLAG 1456 -16 Vo1
FLAG 1456 336 Vo2
FLAG 1120 864 0
FLAG 464 -16 Vd
SYMBOL voltage -240 48 R0
WINDOW 0 25 17 Left 2
WINDOW 3 -234 100 Left 2
WINDOW 123 0 0 Left 0
WINDOW 39 24 124 Left 2
SYMATTR InstName Vwall
SYMATTR Value SINE(0 300 50)
SYMBOL res 1440 64 R0
SYMATTR InstName RL1
SYMATTR Value 1
SYMBOL ind2 720 144 R180
WINDOW 0 36 80 Left 2
WINDOW 3 36 40 Left 2
SYMATTR InstName Lp
SYMATTR Value 100µ
SYMBOL ind2 768 32 R0
SYMATTR InstName Ls1
SYMATTR Value 100µ
SYMBOL cap 1136 80 R0
SYMATTR InstName C1
SYMATTR Value 20µ
SYMBOL voltage 384 944 R0
WINDOW 3 -365 55 Left 2
WINDOW 123 0 0 Left 0
WINDOW 39 0 0 Left 0
SYMATTR InstName VGG
SYMATTR Value PULSE(5 0 0 1n 1n 2.5u 5u)
SYMBOL diode 976 0 R270
WINDOW 0 32 32 VTop 2
WINDOW 3 0 32 VBottom 2
SYMATTR InstName D1
SYMATTR Value MUR160
SYMBOL ZZZ\\MOS\\IRF\\NMOSFET\\irf530 672 928 R0
SYMATTR InstName U1
SYMBOL diode 48 80 R180
WINDOW 0 24 64 Left 2
WINDOW 3 24 0 Left 2
SYMATTR InstName D2
SYMBOL diode 80 0 R270
WINDOW 0 32 32 VTop 2
WINDOW 3 0 32 VBottom 2
SYMATTR InstName D3
SYMBOL diode 208 80 R180
WINDOW 0 24 64 Left 2
WINDOW 3 24 0 Left 2
SYMATTR InstName D4
SYMBOL diode 80 144 R270
WINDOW 0 32 32 VTop 2
WINDOW 3 0 32 VBottom 2
SYMATTR InstName D5
SYMBOL cap 304 64 R0
SYMATTR InstName Cin
SYMATTR Value 20F
SYMBOL res 1440 416 R0
SYMATTR InstName RL2
SYMATTR Value 1
SYMBOL ind2 768 384 R0
SYMATTR InstName Ls2
SYMATTR Value 100µ
SYMBOL cap 1136 432 R0
SYMATTR InstName C2
SYMATTR Value 20µ
SYMBOL diode 976 352 R270
WINDOW 0 32 32 VTop 2
WINDOW 3 0 32 VBottom 2
SYMATTR InstName D6
SYMATTR Value MUR160
SYMBOL diode 912 736 R270
WINDOW 0 32 32 VTop 2
WINDOW 3 0 32 VBottom 2
SYMATTR InstName Dsn
SYMATTR Value MUR160
SYMBOL res 992 832 R90
WINDOW 0 -8 53 VBottom 2
WINDOW 3 32 56 VTop 2
SYMATTR InstName Rsn
SYMBOL cap 1104 752 R0
SYMATTR InstName Csn
SYMBOL cap 1232 80 R0
SYMATTR InstName C4
SYMATTR Value 1µ
SYMBOL cap 1232 432 R0
SYMATTR InstName C5
SYMATTR Value 1µ
TEXT 784 -304 Left 2 !.tran 0 1m 10u 0.00001
TEXT 512 -448 Left 7 ;Flyback Grupo 1
TEXT 696 -104 Left 2 !K Lp Ls 1
TEXT 1064 664 Left 2 ;SNUBBER
TEXT 1376 120 Left 2 ;16V
TEXT 1392 472 Left 2 ;5V
TEXT 112 -96 Left 2 ;RECTIFICADOR
LINE Normal 736 576 736 -16
LINE Normal 752 576 752 -16
RECTANGLE Normal 288 224 -48 -112 3
RECTANGLE Normal 1184 912 816 640 3
