Version 4
SHEET 1 4792 1440
WIRE 32 -16 -240 -16
WIRE 80 -16 32 -16
WIRE 192 -16 144 -16
WIRE 320 -16 192 -16
WIRE 704 -16 320 -16
WIRE 960 -16 768 -16
WIRE 1136 -16 1024 -16
WIRE 1264 -16 1136 -16
WIRE 32 16 32 -16
WIRE 192 16 192 -16
WIRE 704 48 704 -16
WIRE 768 48 768 -16
WIRE -240 64 -240 -16
WIRE 320 64 320 -16
WIRE 1136 80 1136 -16
WIRE 1264 80 1264 -16
WIRE 32 128 32 80
WIRE 80 128 32 128
WIRE 192 128 192 80
WIRE 192 128 144 128
WIRE -240 192 -240 144
WIRE 192 192 192 128
WIRE 192 192 -240 192
WIRE 320 192 320 128
WIRE 320 192 192 192
WIRE 768 224 768 128
WIRE 1024 224 768 224
WIRE 1136 224 1136 144
WIRE 1136 224 1024 224
WIRE 1264 224 1264 160
WIRE 1264 224 1136 224
WIRE 704 240 704 128
WIRE 1024 256 1024 224
WIRE 624 288 384 288
WIRE 384 320 384 288
WIRE -240 368 -240 192
WIRE 704 400 704 336
WIRE 384 432 384 400
FLAG -240 368 0
FLAG 1024 256 0
FLAG 704 400 0
FLAG 384 432 0
SYMBOL voltage -240 48 R0
WINDOW 3 -234 100 Left 2
WINDOW 123 0 0 Left 0
WINDOW 39 24 124 Left 2
SYMATTR InstName V1
SYMATTR Value SINE(0 220 50)
SYMBOL res 1248 64 R0
SYMATTR InstName R1
SYMATTR Value 1
SYMBOL ind2 720 144 R180
WINDOW 0 36 80 Left 2
WINDOW 3 36 40 Left 2
SYMATTR InstName Lp
SYMATTR Value 100µ
SYMBOL ind2 752 32 R0
SYMATTR InstName Ls
SYMATTR Value 100µ
SYMBOL cap 1120 80 R0
SYMATTR InstName C1
SYMATTR Value 20µ
SYMBOL voltage 384 304 R0
WINDOW 123 0 0 Left 0
WINDOW 39 0 0 Left 0
SYMATTR InstName V2
SYMATTR Value PULSE(5 0 0 1n 1n 2.5u 5u)
SYMBOL diode 960 0 R270
WINDOW 0 32 32 VTop 2
WINDOW 3 0 32 VBottom 2
SYMATTR InstName D1
SYMATTR Value MUR160
SYMBOL ZZZ\\MOS\\IRF\\NMOSFET\\irf530 672 288 R0
SYMATTR InstName U1
SYMBOL diode 48 80 R180
WINDOW 0 24 64 Left 2
WINDOW 3 24 0 Left 2
SYMATTR InstName D2
SYMBOL diode 80 0 R270
WINDOW 0 32 32 VTop 2
WINDOW 3 0 32 VBottom 2
SYMATTR InstName D3
SYMBOL diode 208 80 R180
WINDOW 0 24 64 Left 2
WINDOW 3 24 0 Left 2
SYMATTR InstName D4
SYMBOL diode 80 144 R270
WINDOW 0 32 32 VTop 2
WINDOW 3 0 32 VBottom 2
SYMATTR InstName D5
SYMBOL cap 304 64 R0
SYMATTR InstName Cin
SYMATTR Value 20F
TEXT 784 -304 Left 2 !.tran 0 1m 10u 0.00001
TEXT 512 -448 Left 7 ;Flyback Grupo 1
TEXT 696 -104 Left 2 !K Lp Ls 1
