Version 4
SHEET 1 4792 1440
WIRE 320 -16 96 -16
WIRE 320 16 320 -16
WIRE 96 80 96 -16
WIRE 496 80 448 80
WIRE 448 96 448 80
WIRE 448 96 400 96
WIRE 240 192 240 96
WIRE 432 192 240 192
WIRE 496 192 496 144
WIRE 496 192 432 192
WIRE 96 224 96 160
WIRE 320 224 320 176
WIRE 320 224 96 224
FLAG 432 192 0
SYMBOL voltage 96 64 R0
SYMATTR InstName V1
SYMBOL cap 480 80 R0
SYMATTR InstName C1
SYMBOL ZZZ\\bridgerectifier\\diode_fullbridge 320 96 R0
SYMATTR InstName U1
TEXT 784 -304 Left 2 !.tran 0 4.06m 4.00m 100u
TEXT 512 -448 Left 7 ;Flyback Grupo 1
