Version 4
SHEET 1 4792 820
WIRE 720 -224 128 -224
WIRE 944 -224 720 -224
WIRE 1088 -224 944 -224
WIRE 1328 -224 1184 -224
WIRE 1488 -224 1328 -224
WIRE 1712 -224 1568 -224
WIRE 1824 -224 1712 -224
WIRE 1968 -224 1888 -224
WIRE 2096 -224 1968 -224
WIRE 2576 -224 2432 -224
WIRE 2736 -224 2576 -224
WIRE 2960 -224 2816 -224
WIRE 3072 -224 2960 -224
WIRE 3216 -224 3136 -224
WIRE 3344 -224 3216 -224
WIRE 1184 -208 1184 -224
WIRE 2432 -208 2432 -224
WIRE 1328 -192 1328 -224
WIRE 2576 -192 2576 -224
WIRE 720 -144 720 -224
WIRE 1184 -96 1184 -128
WIRE 1328 -96 1328 -128
WIRE 1328 -96 1184 -96
WIRE 2432 -96 2432 -128
WIRE 2576 -96 2576 -128
WIRE 2576 -96 2432 -96
WIRE 1328 -64 1328 -96
WIRE 2576 -64 2576 -96
WIRE 944 16 944 -224
WIRE 1088 48 1088 -224
WIRE 720 64 720 -64
WIRE 816 64 720 64
WIRE 880 64 816 64
WIRE 2960 64 2960 -224
WIRE 1712 80 1712 -224
WIRE 1968 80 1968 -224
WIRE 2096 80 2096 -224
WIRE 3216 80 3216 -224
WIRE 3344 80 3344 -224
WIRE 128 96 128 -224
WIRE 1712 144 1712 80
WIRE 2960 144 2960 64
WIRE 720 160 720 64
WIRE 944 192 944 112
WIRE 1296 192 944 192
WIRE 1600 192 1376 192
WIRE 1632 192 1600 192
WIRE 2672 192 2656 192
WIRE 2816 192 2752 192
WIRE 2880 192 2816 192
WIRE 384 208 320 208
WIRE 528 208 464 208
WIRE 656 208 608 208
WIRE 944 256 944 192
WIRE 320 288 320 208
WIRE 2656 288 2656 192
WIRE 816 304 816 64
WIRE 880 304 816 304
WIRE 128 480 128 176
WIRE 320 480 320 368
WIRE 320 480 128 480
WIRE 720 480 720 256
WIRE 720 480 320 480
WIRE 944 480 944 352
WIRE 944 480 720 480
WIRE 1088 480 1088 112
WIRE 1088 480 944 480
WIRE 1712 480 1712 240
WIRE 1712 480 1088 480
WIRE 1968 480 1968 144
WIRE 1968 480 1712 480
WIRE 2096 480 2096 160
WIRE 2096 480 1968 480
WIRE 2656 480 2656 368
WIRE 2960 480 2960 240
WIRE 2960 480 2656 480
WIRE 3216 480 3216 144
WIRE 3216 480 2960 480
WIRE 3344 480 3344 160
WIRE 3344 480 3216 480
WIRE 944 512 944 480
FLAG 944 512 0
FLAG 1600 192 Gate
FLAG 1712 80 Drain
FLAG 2096 -224 Vo
FLAG 1328 -64 0
FLAG 2816 192 GateIdeal
FLAG 2960 64 DrainIdeal
FLAG 2576 -64 0
FLAG 3344 -224 VoIdeal
FLAG 2960 480 0
SYMBOL voltage 1184 -224 R0
WINDOW 123 0 0 Left 0
WINDOW 39 0 0 Left 0
SYMATTR InstName Vd
SYMATTR Value 9
SYMBOL voltage 320 272 R0
WINDOW 123 0 0 Left 0
WINDOW 39 0 0 Left 0
WINDOW 3 -151 109 Left 2
SYMATTR Value PULSE(1 0 0 0.1u 0.1u 10u 18.1818u)
SYMATTR InstName V1
SYMBOL res 480 192 R90
WINDOW 0 0 56 VBottom 2
WINDOW 3 32 56 VTop 2
SYMATTR InstName R6
SYMATTR Value 50
SYMBOL res 624 192 R90
WINDOW 0 0 56 VBottom 2
WINDOW 3 32 56 VTop 2
SYMATTR InstName R3
SYMATTR Value 100
SYMBOL res 704 -160 R0
SYMATTR InstName R5
SYMATTR Value 1K
SYMBOL res 1392 176 R90
WINDOW 0 0 56 VBottom 2
WINDOW 3 32 56 VTop 2
SYMATTR InstName R1
SYMATTR Value 22
SYMBOL ind 1472 -208 R270
WINDOW 0 32 56 VTop 2
WINDOW 3 5 56 VBottom 2
SYMATTR InstName L1
SYMATTR Value 220µ
SYMATTR SpiceLine Ipk=1 Rser=0.73 Rpar=138200 Cpar=3.475p
SYMBOL res 2080 64 R0
SYMATTR InstName Ro
SYMATTR Value 200
SYMBOL pnp 880 352 M180
SYMATTR InstName Q1
SYMATTR Value 2N2907
SYMBOL npn 880 16 R0
SYMATTR InstName Q2
SYMATTR Value 2N2222
SYMBOL npn 656 160 R0
SYMATTR InstName Q3
SYMATTR Value BC547B
SYMBOL cap 1952 80 R0
SYMATTR InstName C1
SYMATTR Value 4.7µ
SYMBOL cap 1312 -192 R0
SYMATTR InstName C2
SYMATTR Value 1µ
SYMBOL voltage 128 80 R0
WINDOW 123 0 0 Left 0
WINDOW 39 0 0 Left 0
SYMATTR InstName Vgg
SYMATTR Value 15
SYMBOL diode 1824 -208 R270
WINDOW 0 32 32 VTop 2
WINDOW 3 0 32 VBottom 2
SYMATTR InstName D1
SYMATTR Value MUR460-M
SYMBOL cap 1072 48 R0
SYMATTR InstName C3
SYMATTR Value 1µ
SYMBOL ZZZ\\MOS\\IRF\\NMOSFET\\irf540 1680 192 R0
SYMATTR InstName U1
SYMBOL voltage 2432 -224 R0
WINDOW 123 0 0 Left 0
WINDOW 39 0 0 Left 0
SYMATTR InstName Vd1
SYMATTR Value 9
SYMBOL voltage 2656 272 R0
WINDOW 123 0 0 Left 0
WINDOW 39 0 0 Left 0
WINDOW 3 -151 109 Left 2
SYMATTR Value PULSE(0 15 0 0.1u 0.1u 10u 18.1818u)
SYMATTR InstName V2
SYMBOL ind 2720 -208 R270
WINDOW 0 32 56 VTop 2
WINDOW 3 5 56 VBottom 2
SYMATTR InstName L2
SYMATTR Value 220µ
SYMATTR SpiceLine Ipk=1 Rser=0 Rpar=138200 Cpar=3.475p
SYMBOL res 3328 64 R0
SYMATTR InstName Ro1
SYMATTR Value 68
SYMBOL cap 3200 80 R0
SYMATTR InstName C4
SYMATTR Value 4.7µ
SYMBOL cap 2560 -192 R0
SYMATTR InstName C5
SYMATTR Value 1µ
SYMBOL diode 3072 -208 R270
WINDOW 0 32 32 VTop 2
WINDOW 3 0 32 VBottom 2
SYMATTR InstName D2
SYMATTR Value DidI
SYMBOL ZZZ\\MOS\\IRF\\NMOSFET\\irf540 2928 192 R0
SYMATTR InstName U2
SYMBOL res 2768 176 R90
WINDOW 0 0 56 VBottom 2
WINDOW 3 32 56 VTop 2
SYMATTR InstName R2
SYMATTR Value 47
TEXT 144 528 Left 2 !.tran 0 4.001m 3.999m 100u
TEXT 1456 -288 Left 2 ;Rserie = 0.73
TEXT 512 -448 Left 7 ;Boost Converter Real
TEXT 2936 -296 Left 2 !.model DidI D(Ron=0.0001 Roff=100G Vfwd=0)
TEXT 3072 -336 Left 2 ;Diodo ideal Von = 0V
TEXT 2720 -288 Left 2 ;Rserie = 0
TEXT 2336 -456 Left 7 ;Boost Converter Ideal
LINE Normal 2224 816 2224 -752 1
