Version 4
SHEET 1 2424 680
WIRE 720 -224 128 -224
WIRE 944 -224 720 -224
WIRE 1120 -224 944 -224
WIRE 1408 -224 1248 -224
WIRE 1632 -224 1488 -224
WIRE 1744 -224 1632 -224
WIRE 1888 -224 1808 -224
WIRE 2016 -224 1888 -224
WIRE 1248 -192 1248 -224
WIRE 720 -144 720 -224
WIRE 1248 -80 1248 -112
WIRE 944 16 944 -224
WIRE 1120 32 1120 -224
WIRE 720 64 720 -64
WIRE 816 64 720 64
WIRE 880 64 816 64
WIRE 1888 80 1888 -224
WIRE 2016 80 2016 -224
WIRE 128 96 128 -224
WIRE 1632 96 1632 -224
WIRE 1632 144 1632 96
WIRE 720 160 720 64
WIRE 944 192 944 112
WIRE 1328 192 944 192
WIRE 1520 192 1408 192
WIRE 1552 192 1520 192
WIRE 384 208 320 208
WIRE 528 208 464 208
WIRE 656 208 608 208
WIRE 944 256 944 192
WIRE 320 288 320 208
WIRE 816 304 816 64
WIRE 880 304 816 304
WIRE 128 480 128 176
WIRE 320 480 320 368
WIRE 320 480 128 480
WIRE 720 480 720 256
WIRE 720 480 320 480
WIRE 944 480 944 352
WIRE 944 480 720 480
WIRE 1120 480 1120 96
WIRE 1120 480 944 480
WIRE 1632 480 1632 240
WIRE 1632 480 1120 480
WIRE 1888 480 1888 144
WIRE 1888 480 1632 480
WIRE 2016 480 2016 160
WIRE 2016 480 1888 480
WIRE 944 512 944 480
FLAG 944 512 0
FLAG 1520 192 Vg
FLAG 1632 96 Vd
FLAG 2016 -224 Vo
FLAG 1248 -80 0
SYMBOL voltage 1248 -208 R0
WINDOW 123 0 0 Left 0
WINDOW 39 0 0 Left 0
SYMATTR InstName Vd
SYMATTR Value 9
SYMBOL voltage 320 272 R0
WINDOW 123 0 0 Left 0
WINDOW 39 0 0 Left 0
WINDOW 3 -151 109 Left 2
SYMATTR Value PULSE(1 0 0 0.1u 0.1u 10u 18.1818u)
SYMATTR InstName V1
SYMBOL res 480 192 R90
WINDOW 0 0 56 VBottom 2
WINDOW 3 32 56 VTop 2
SYMATTR InstName R6
SYMATTR Value 50
SYMBOL res 624 192 R90
WINDOW 0 0 56 VBottom 2
WINDOW 3 32 56 VTop 2
SYMATTR InstName R3
SYMATTR Value 270
SYMBOL res 704 -160 R0
SYMATTR InstName R5
SYMATTR Value 15K
SYMBOL res 1424 176 R90
WINDOW 0 0 56 VBottom 2
WINDOW 3 32 56 VTop 2
SYMATTR InstName R1
SYMATTR Value 27
SYMBOL ind 1392 -208 R270
WINDOW 0 32 56 VTop 2
WINDOW 3 5 56 VBottom 2
SYMATTR InstName L1
SYMATTR Value 220µ
SYMATTR SpiceLine Ipk=1 Rser=0.73 Rpar=138200 Cpar=3.475p
SYMBOL diode 1744 -208 R270
WINDOW 0 32 32 VTop 2
WINDOW 3 0 32 VBottom 2
SYMATTR InstName D1
SYMATTR Value DidI
SYMBOL res 2000 64 R0
SYMATTR InstName Ro
SYMATTR Value 57
SYMBOL pnp 880 352 M180
SYMATTR InstName Q1
SYMATTR Value 2N2907
SYMBOL npn 880 16 R0
SYMATTR InstName Q2
SYMATTR Value 2N2222
SYMBOL npn 656 160 R0
SYMATTR InstName Q3
SYMATTR Value BC547B
SYMBOL cap 1872 80 R0
SYMATTR InstName C1
SYMATTR Value 3.9µ
SYMBOL cap 1104 32 R0
SYMATTR InstName C2
SYMATTR Value 1µ
SYMBOL voltage 128 80 R0
WINDOW 123 0 0 Left 0
WINDOW 39 0 0 Left 0
SYMATTR InstName Vgg
SYMATTR Value 15
SYMBOL irf540 1600 192 R0
SYMATTR InstName U1
TEXT 1144 64 Left 2 ;SDM Desacople
TEXT 144 528 Left 2 !.tran 0 4.05m 4m 100u
TEXT 1736 -296 Left 2 !.model DidI D(Ron=0.0001 Roff=100G Vfwd=0)
TEXT 1744 -328 Left 2 ;Diodo ideal Von = 0V
TEXT 1376 -288 Left 2 ;Rserie = 0.73
TEXT 1304 256 Left 4 ;-Falta \nRevisar
TEXT 600 -448 Left 6 ;Convertidor DC/DC Boost
